LTspice 26.0.1 for Windows
Circuit: D:\Projects\CAD\Musical Instrument\SPICE simulation.net
Start Time: Fri Jun  5 00:55:43 2026
solver = Normal
Maximum thread count: 22
tnom = 27
temp = 27
method = trap
Direct Newton iteration failed to find operating point.
Starting Gmin stepping
Gmin stepping succeeded in finding the operating point.

Total elapsed time: 0.385 seconds.

Files loaded:
D:\Projects\CAD\Musical Instrument\SPICE simulation.net
C:\Users\James\AppData\Local\LTspice\lib\cmp\standard.dio
C:\Users\James\AppData\Local\LTspice\lib\cmp\standard.bjt
C:\Users\James\AppData\Local\LTspice\lib\sub\UniversalOpAmp2.lib

