LTspice 26.0.1 for Windows
Circuit: D:\Projects\CAD\Electronic Trombone\SPICE simulation.net
Start Time: Tue May 26 20:07:48 2026
solver = Normal
Maximum thread count: 22
tnom = 27
temp = 27
method = trap
Direct Newton iteration succeeded in finding operating point.
Total elapsed time: 0.317 seconds.

Files loaded:
D:\Projects\CAD\Electronic Trombone\SPICE simulation.net
C:\Users\James\AppData\Local\LTspice\lib\cmp\standard.dio
C:\Users\James\AppData\Local\LTspice\lib\sub\UniversalOpAmp2.lib

